Version 4
SHEET 1 880 680
WIRE -128 -160 -432 -160
WIRE 336 -160 -128 -160
WIRE -128 -128 -128 -160
WIRE 336 -16 336 -160
WIRE 336 -16 -16 -16
WIRE 400 -16 336 -16
WIRE 448 -16 400 -16
WIRE 464 -16 448 -16
WIRE 400 16 400 -16
WIRE 80 96 32 96
WIRE 336 96 336 -16
WIRE 336 96 304 96
WIRE 400 128 400 96
WIRE 400 128 352 128
WIRE 656 128 400 128
WIRE -144 144 -544 144
WIRE -64 144 -144 144
WIRE 80 160 32 160
WIRE 352 160 352 128
WIRE 352 160 304 160
WIRE 400 160 400 128
WIRE 656 160 656 128
WIRE -432 176 -432 -160
WIRE -496 224 -544 224
WIRE -144 224 -144 144
WIRE -64 224 -64 144
WIRE 80 224 -64 224
WIRE 336 224 304 224
WIRE 400 256 400 224
WIRE 432 256 400 256
WIRE 528 256 512 256
WIRE 544 256 528 256
WIRE 656 256 656 224
WIRE 656 256 624 256
WIRE -16 288 -16 -16
WIRE 80 288 -16 288
WIRE 336 320 336 224
WIRE 384 320 336 320
WIRE 528 320 528 256
WIRE 528 320 384 320
WIRE -144 336 -144 304
WIRE -432 352 -432 272
WIRE -432 352 -560 352
WIRE 32 368 32 160
WIRE 384 368 384 320
WIRE 384 368 32 368
WIRE 400 368 384 368
WIRE -144 448 -144 400
WIRE -560 464 -560 416
WIRE -432 464 -432 432
WIRE -432 464 -560 464
WIRE -432 480 -432 464
FLAG 32 96 0
FLAG 464 368 0
FLAG 512 -16 0
FLAG -128 -48 0
FLAG -144 448 0
FLAG -432 480 0
SYMBOL Misc\\NE555 192 192 R0
SYMATTR InstName U1
SYMBOL cap 464 352 R90
WINDOW 0 0 32 VBottom 2
WINDOW 3 32 32 VTop 2
SYMATTR InstName C1
SYMATTR Value 10n
SYMBOL cap 512 -32 R90
WINDOW 0 0 32 VBottom 2
WINDOW 3 32 32 VTop 2
SYMATTR InstName C2
SYMATTR Value .01µ
SYMBOL voltage -128 -144 R0
SYMATTR InstName V1
SYMATTR Value 12
SYMBOL res 384 0 R0
SYMATTR InstName R1
SYMATTR Value 1k
SYMBOL diode 416 224 R180
WINDOW 0 24 64 Left 2
WINDOW 3 24 0 Left 2
SYMATTR InstName D1
SYMBOL diode 640 160 R0
SYMATTR InstName D2
SYMBOL res 528 240 R90
WINDOW 0 0 56 VBottom 2
WINDOW 3 32 56 VTop 2
SYMATTR InstName R2
SYMATTR Value 1k
SYMBOL res 640 240 R90
WINDOW 0 0 56 VBottom 2
WINDOW 3 32 56 VTop 2
SYMATTR InstName R3
SYMATTR Value 19k
SYMBOL res -160 208 R0
SYMATTR InstName R4
SYMATTR Value 220
SYMBOL LED -160 336 R0
SYMATTR InstName D3
SYMBOL npn -496 176 R0
SYMATTR InstName Q1
SYMBOL res -528 240 R180
WINDOW 0 36 76 Left 2
WINDOW 3 36 40 Left 2
SYMATTR InstName R5
SYMATTR Value 1k
SYMBOL res -448 336 R0
SYMATTR InstName R6
SYMATTR Value 50
SYMBOL diode -544 416 R180
WINDOW 0 24 64 Left 2
WINDOW 3 24 0 Left 2
SYMATTR InstName D4
TEXT -64 416 Left 2 !.tran 1m
